
 OpenBabel05052316153D

 26 27  0  0  0  0  0  0  0  0999 V2000
   -2.5714    0.5474    0.0038 C   0  0  0  0  0  0  0  0  0  0  0  0
   -1.2125   -0.0913    0.0021 C   0  0  0  0  0  0  0  0  0  0  0  0
   -1.0926   -1.4872    0.0040 C   0  0  0  0  0  0  0  0  0  0  0  0
    0.1629   -2.1140    0.0074 C   0  0  0  0  0  0  0  0  0  0  0  0
    0.2634   -3.5809    0.0014 C   0  0  0  0  0  0  0  0  0  0  0  0
   -0.6019   -4.4212   -0.5883 C   0  0  0  0  0  0  0  0  0  0  0  0
   -0.1434   -6.0860   -0.3716 S   0  0  0  0  0  0  0  0  0  0  0  0
    1.2799   -5.6087    0.5564 C   0  0  0  0  0  0  0  0  0  0  0  0
    2.0905   -6.3773    1.0468 O   0  0  0  0  0  0  0  0  0  0  0  0
    1.2978   -4.2390    0.6210 N   0  0  0  0  0  0  0  0  0  0  0  0
    1.3102   -1.3034    0.0203 C   0  0  0  0  0  0  0  0  0  0  0  0
    1.2199    0.1003    0.0103 C   0  0  0  0  0  0  0  0  0  0  0  0
    2.4804    0.9178   -0.0158 C   0  0  0  0  0  0  0  0  0  0  0  0
   -0.0506    0.6904    0.0047 C   0  0  0  0  0  0  0  0  0  0  0  0
   -0.2208    2.0475   -0.0016 O   0  0  0  0  0  0  0  0  0  0  0  0
   -3.3691   -0.2027   -0.0277 H   0  0  0  0  0  0  0  0  0  0  0  0
   -2.6901    1.1920   -0.8733 H   0  0  0  0  0  0  0  0  0  0  0  0
   -2.7081    1.1405    0.9138 H   0  0  0  0  0  0  0  0  0  0  0  0
   -2.0006   -2.0867    0.0095 H   0  0  0  0  0  0  0  0  0  0  0  0
   -1.4862   -4.1418   -1.1448 H   0  0  0  0  0  0  0  0  0  0  0  0
    2.0300   -3.7765    1.1377 H   0  0  0  0  0  0  0  0  0  0  0  0
    2.2961   -1.7644    0.0130 H   0  0  0  0  0  0  0  0  0  0  0  0
    3.3747    0.2856   -0.0111 H   0  0  0  0  0  0  0  0  0  0  0  0
    2.5306    1.5680    0.8634 H   0  0  0  0  0  0  0  0  0  0  0  0
    2.5129    1.5279   -0.9240 H   0  0  0  0  0  0  0  0  0  0  0  0
    0.6427    2.4875    0.0167 H   0  0  0  0  0  0  0  0  0  0  0  0
  1  2  1  0  0  0  0
  1 16  1  0  0  0  0
  1 17  1  0  0  0  0
  1 18  1  0  0  0  0
  2  3  1  0  0  0  0
  2 14  2  0  0  0  0
  3  4  2  0  0  0  0
  3 19  1  0  0  0  0
  4  5  1  0  0  0  0
  4 11  1  0  0  0  0
  5  6  2  0  0  0  0
  5 10  1  0  0  0  0
  6  7  1  0  0  0  0
  6 20  1  0  0  0  0
  7  8  1  0  0  0  0
  8  9  2  0  0  0  0
  8 10  1  0  0  0  0
 10 21  1  0  0  0  0
 11 12  2  0  0  0  0
 11 22  1  0  0  0  0
 12 13  1  0  0  0  0
 12 14  1  0  0  0  0
 13 23  1  0  0  0  0
 13 24  1  0  0  0  0
 13 25  1  0  0  0  0
 14 15  1  0  0  0  0
 15 26  1  0  0  0  0
M  END
